@<TRIPOS>MOLECULE
Coordinates
   86    94     1     0     0
SMALL
No Charge or Current Charge


@<TRIPOS>ATOM
      1 O51        -21.5660     4.9330    -2.1900 o          1 UNL      -0.413000
      2 O52         -8.0170    10.7850    -1.4810 o          1 UNL      -0.415000
      3 O53        -15.8780    -7.5030    -2.7760 o          1 UNL      -0.417000
      4 O54         -3.0380    -2.3150    -0.3210 o          1 UNL      -0.417000
      5 O55        -20.8630     5.5940    -4.2380 o          1 UNL      -0.419000
      6 O56         -9.2440    11.0920     0.3970 o          1 UNL      -0.421000
      7 O57        -15.6440    -7.6770    -0.5310 o          1 UNL      -0.417000
      8 O           -3.2390    -1.6310     1.8280 o          1 UNL      -0.419000
      9 N01        -12.9910     3.6060    -1.4620 na         1 UNL      -0.065000
     10 N02        -11.3360    -0.2680    -1.0310 na         1 UNL      -0.050000
     11 N03        -14.0010     0.8350    -1.6160 nc         1 UNL      -0.197000
     12 N          -10.3260     2.5030    -0.8750 nd         1 UNL      -0.176000
     13 C04        -14.3120     3.8570    -1.7600 cc         1 UNL       0.062000
     14 C05        -12.2830     4.7810    -1.3260 cc         1 UNL       0.077000
     15 C06        -12.0490    -1.4420    -1.1410 cc         1 UNL       0.063000
     16 C07        -10.0110    -0.5210    -0.7540 cd         1 UNL       0.053000
     17 C08        -15.3390     2.9080    -1.9550 cf         1 UNL       0.063000
     18 C09        -10.9100     4.9180    -1.0280 ce         1 UNL      -0.002000
     19 C10        -13.4250    -1.5790    -1.4230 cf         1 UNL       0.037000
     20 C11         -8.9850     0.4280    -0.5550 ce         1 UNL       0.087000
     21 C12        -15.1640     1.5020    -1.8780 cc         1 UNL      -0.012000
     22 C13        -10.0180     3.8320    -0.8230 cd         1 UNL      -0.000000
     23 C14        -14.3120    -0.4950    -1.6470 cd         1 UNL       0.035000
     24 C15         -9.1640     1.8340    -0.6100 cc         1 UNL       0.026000
     25 C16        -14.4490     5.2870    -1.8150 cd         1 UNL      -0.009000
     26 C17        -13.2190     5.8450    -1.5630 cd         1 UNL      -0.024000
     27 C18        -11.1090    -2.5080    -0.9250 cc         1 UNL      -0.054000
     28 C19         -9.8770    -1.9500    -0.6820 cd         1 UNL      -0.040000
     29 C20        -16.7110     3.4480    -2.2540 ca         1 UNL       0.126000
     30 C21        -10.3780     6.3210    -0.9190 ca         1 UNL      -0.025000
     31 C22        -13.9680    -2.9810    -1.4810 ca         1 UNL      -0.042000
     32 C23         -7.6150    -0.1160    -0.2540 ca         1 UNL       0.037000
     33 C24        -16.2610     0.5580    -2.0940 cc         1 UNL      -0.024000
     34 C25         -8.6030     4.0210    -0.5030 cd         1 UNL      -0.039000
     35 C26        -15.7330    -0.6840    -1.9370 cd         1 UNL       0.005000
     36 C27         -8.0680     2.7770    -0.3850 cc         1 UNL       0.005000
     37 C28        -17.0000     4.0710    -3.4840 ca         1 UNL      -0.059000
     38 C29         -9.4760     6.8400    -1.8700 ca         1 UNL       0.024000
     39 C30        -17.7520     3.3560    -1.3090 ca         1 UNL      -0.042000
     40 C31        -10.7670     7.1670     0.1380 ca         1 UNL       0.022000
     41 C32        -14.3570    -3.5660    -2.7020 ca         1 UNL       0.034000
     42 C33         -6.8480    -0.7540    -1.2490 ca         1 UNL      -0.025000
     43 C34        -14.1040    -3.7550    -0.3120 ca         1 UNL       0.025000
     44 C35         -7.0590    -0.0210     1.0370 ca         1 UNL      -0.009000
     45 C36        -18.2750     4.5790    -3.7530 ca         1 UNL      -0.036000
     46 C37         -8.9870     8.1460    -1.7620 ca         1 UNL      -0.017000
     47 C38        -19.0230     3.8700    -1.5850 ca         1 UNL      -0.035000
     48 C39        -10.2720     8.4710     0.2400 ca         1 UNL      -0.019000
     49 C40        -14.8610    -4.8700    -2.7470 ca         1 UNL      -0.017000
     50 C41         -5.5810    -1.2730    -0.9620 ca         1 UNL      -0.024000
     51 C42        -14.6130    -5.0570    -0.3660 ca         1 UNL      -0.020000
     52 C43         -5.7930    -0.5460     1.3170 ca         1 UNL      -0.024000
     53 C44        -19.3080     4.4900    -2.8100 ca         1 UNL       0.023000
     54 C45         -9.3730     8.9840    -0.7060 ca         1 UNL       0.013000
     55 C46        -15.0000    -5.6380    -1.5820 ca         1 UNL       0.016000
     56 C47         -5.0320    -1.1810     0.3250 ca         1 UNL       0.029000
     57 C48        -20.7280     5.0660    -3.1110 ce         1 UNL       0.084000
     58 C49         -8.8200    10.4390    -0.5850 ce         1 UNL       0.087000
     59 C50        -15.5660    -7.0920    -1.6350 ce         1 UNL       0.087000
     60 C           -3.6220    -1.7700     0.6440 ce         1 UNL       0.087000
     61 H58        -12.5880     2.6770    -1.3520 hn         1 UNL       0.136000
     62 H59        -11.7380     0.6610    -1.1380 hn         1 UNL       0.135000
     63 H60        -15.3810     5.8030    -2.0270 ha         1 UNL      -0.022000
     64 H61        -12.9630     6.9010    -1.5370 ha         1 UNL      -0.018000
     65 H62        -11.3680    -3.5630    -0.9520 ha         1 UNL      -0.025000
     66 H63         -8.9440    -2.4660    -0.4720 ha         1 UNL      -0.022000
     67 H64        -17.2880     0.8270    -2.3280 ha         1 UNL      -0.028000
     68 H65         -8.1030     4.9800    -0.3910 ha         1 UNL      -0.019000
     69 H66        -16.2400    -1.6430    -2.0110 ha         1 UNL      -0.023000
     70 H67         -7.0390     2.5060    -0.1620 ha         1 UNL      -0.048000
     71 H68        -16.2080     4.1470    -4.2370 ha         1 UNL      -0.040000
     72 H69         -9.1640     6.2030    -2.7040 ha         1 UNL      -0.060000
     73 H70        -17.5480     2.8780    -0.3450 ha         1 UNL      -0.054000
     74 H71        -11.4610     6.7830     0.8940 ha         1 UNL      -0.061000
     75 H72        -14.2540    -2.9830    -3.6240 ha         1 UNL      -0.062000
     76 H73         -7.2590    -0.8350    -2.2610 ha         1 UNL      -0.043000
     77 H74        -13.8130    -3.3180     0.6480 ha         1 UNL      -0.054000
     78 H75         -7.6400     0.4670     1.8270 ha         1 UNL      -0.044000
     79 H76        -18.5170     5.0610    -4.7050 ha         1 UNL      -0.052000
     80 H77         -8.2880     8.5630    -2.4920 ha         1 UNL      -0.056000
     81 H78        -19.8400     3.8120    -0.8610 ha         1 UNL      -0.053000
     82 H79        -10.5590     9.1370     1.0580 ha         1 UNL      -0.056000
     83 H80        -15.1650    -5.3410    -3.6860 ha         1 UNL      -0.054000
     84 H81         -4.9720    -1.7670    -1.7230 ha         1 UNL      -0.052000
     85 H82        -14.7310    -5.6700     0.5320 ha         1 UNL      -0.054000
     86 H           -5.3500    -0.4880     2.3150 ha         1 UNL      -0.052000
@<TRIPOS>BOND
     1     2    58 2   
     2     3    59 2   
     3     4    60 2   
     4     5    57 2   
     5     9    14 1   
     6     9    61 1   
     7    10    16 1   
     8    11    21 1   
     9    11    23 2   
    10     9    13 1   
    11    13    25 2   
    12    14    18 1   
    13    14    26 2   
    14    10    15 1   
    15    16    20 2   
    16    13    17 1   
    17    18    30 1   
    18    15    19 2   
    19    20    24 1   
    20    20    32 1   
    21    17    21 2   
    22    12    22 1   
    23    18    22 2   
    24    19    23 1   
    25    12    24 2   
    26    24    36 1   
    27    25    26 1   
    28    26    64 1   
    29    15    27 1   
    30    27    28 2   
    31    16    28 1   
    32    28    66 1   
    33    17    29 1   
    34    29    39 ar  
    35    30    40 ar  
    36    19    31 1   
    37    31    43 ar  
    38    32    44 ar  
    39    21    33 1   
    40    33    35 2   
    41    22    34 1   
    42    34    36 2   
    43    34    68 1   
    44    23    35 1   
    45    36    70 1   
    46    29    37 ar  
    47    30    38 ar  
    48    38    46 ar  
    49    39    73 1   
    50    40    48 ar  
    51    40    74 1   
    52    31    41 ar  
    53    32    42 ar  
    54    42    50 ar  
    55    43    77 1   
    56    44    52 ar  
    57    44    78 1   
    58    37    45 ar  
    59    45    53 ar  
    60    46    54 ar  
    61    39    47 ar  
    62    47    81 1   
    63    48    82 1   
    64    41    49 ar  
    65    49    55 ar  
    66    50    56 ar  
    67    43    51 ar  
    68    51    85 1   
    69    52    86 1   
    70    47    53 ar  
    71    48    54 ar  
    72    54    58 1   
    73    51    55 ar  
    74    52    56 ar  
    75    56    60 1   
    76     1    57 1   
    77    53    57 1   
    78     6    58 1   
    79     7    59 1   
    80    55    59 1   
    81     8    60 1   
    82    10    62 1   
    83    25    63 1   
    84    27    65 1   
    85    33    67 1   
    86    35    69 1   
    87    37    71 1   
    88    38    72 1   
    89    41    75 1   
    90    42    76 1   
    91    45    79 1   
    92    46    80 1   
    93    49    83 1   
    94    50    84 1   
@<TRIPOS>SUBSTRUCTURE
     1 UNL         1 TEMP              0 ****  ****    0 ROOT
