REMARK SMILES O=C([O-])c1ccc(-c2c3nc(c(-c4ccc(C(=O)[O-])cc4)c4ccc([nH]4)c(-c4ccc(C(=O)[O-])cc4)c4nc(c(-c5ccc(C(=O)[O-])cc5)c5ccc2[nH]5)C=C4)C=C3)cc1
REMARK SMILES IDX 54 1 26 2 10 3 38 4 53 5 50 6 22 7 25 8 8 9 40 10 12 11
REMARK SMILES IDX 27 12 9 13 39 14 11 15 37 16 52 17 51 18 23 19 24 20 58 21
REMARK SMILES IDX 55 22 57 23 56 24 7 27 4 28 5 29 60 30 6 31 59 32 2 33 3 34
REMARK SMILES IDX 1 35 41 36 49 37 42 38 48 39 43 40 44 41 45 42 47 43 46 44
REMARK SMILES IDX 13 45 21 46 14 47 20 48 15 49 16 50 17 51 19 52 18 53 28 54
REMARK SMILES IDX 36 55 29 56 35 57 30 58 31 59 32 60 34 61 33 62
REMARK H PARENT 54 25 26 26
REMARK INDEX MAP 9 1 10 2 11 3 12 4 13 5 14 6 15 7 16 8 17 9 18 10 19 11 20 12
REMARK INDEX MAP 21 13 22 14 23 15 24 16 25 17 26 18 27 19 28 20 33 21 34 22
REMARK INDEX MAP 35 23 36 24 61 25 62 26 29 27 53 28 45 29 47 30 37 31 39 32
REMARK INDEX MAP 57 33 1 34 5 35 30 36 40 37 38 38 48 39 46 40 54 41 58 42
REMARK INDEX MAP 2 43 6 44 31 45 43 46 41 47 51 48 49 49 55 50 59 51 3 52 7 53
REMARK INDEX MAP 32 54 44 55 42 56 52 57 50 58 56 59 60 60 4 61 8 62
ROOT
ATOM      1  N   UNL     1     -12.991   3.606  -1.462  1.00  0.00    -0.354 N 
ATOM      2  N   UNL     1     -11.336  -0.268  -1.031  1.00  0.00    -0.354 N 
ATOM      3  N   UNL     1     -14.001   0.835  -1.616  1.00  0.00    -0.248 NA
ATOM      4  N   UNL     1     -10.326   2.503  -0.875  1.00  0.00    -0.248 NA
ATOM      5  C   UNL     1     -14.312   3.857  -1.760  1.00  0.00     0.049 A 
ATOM      6  C   UNL     1     -12.283   4.781  -1.326  1.00  0.00     0.049 A 
ATOM      7  C   UNL     1     -12.049  -1.442  -1.141  1.00  0.00     0.049 A 
ATOM      8  C   UNL     1     -10.011  -0.521  -0.754  1.00  0.00     0.049 A 
ATOM      9  C   UNL     1     -15.339   2.908  -1.955  1.00  0.00     0.031 A 
ATOM     10  C   UNL     1     -10.910   4.918  -1.028  1.00  0.00     0.031 A 
ATOM     11  C   UNL     1     -13.425  -1.579  -1.423  1.00  0.00     0.031 A 
ATOM     12  C   UNL     1      -8.985   0.428  -0.555  1.00  0.00     0.031 A 
ATOM     13  C   UNL     1     -15.164   1.502  -1.878  1.00  0.00     0.074 A 
ATOM     14  C   UNL     1     -10.018   3.832  -0.823  1.00  0.00     0.074 A 
ATOM     15  C   UNL     1     -14.312  -0.495  -1.647  1.00  0.00     0.074 A 
ATOM     16  C   UNL     1      -9.164   1.834  -0.610  1.00  0.00     0.074 A 
ATOM     17  C   UNL     1     -14.449   5.287  -1.815  1.00  0.00     0.029 A 
ATOM     18  C   UNL     1     -13.219   5.845  -1.563  1.00  0.00     0.029 A 
ATOM     19  C   UNL     1     -11.109  -2.508  -0.925  1.00  0.00     0.029 A 
ATOM     20  C   UNL     1      -9.877  -1.950  -0.682  1.00  0.00     0.029 A 
ATOM     21  C   UNL     1     -16.261   0.558  -2.094  1.00  0.00     0.031 C 
ATOM     22  C   UNL     1      -8.603   4.021  -0.503  1.00  0.00     0.031 C 
ATOM     23  C   UNL     1     -15.733  -0.684  -1.937  1.00  0.00     0.031 C 
ATOM     24  C   UNL     1      -8.068   2.777  -0.385  1.00  0.00     0.031 C 
ATOM     25  H   UNL     1     -12.588   2.677  -1.352  1.00  0.00     0.167 HD
ATOM     26  H   UNL     1     -11.738   0.661  -1.138  1.00  0.00     0.167 HD
ENDROOT
BRANCH   9  27
ATOM     27  C   UNL     1     -16.711   3.448  -2.254  1.00  0.00    -0.014 A 
ATOM     28  C   UNL     1     -19.308   4.490  -2.810  1.00  0.00    -0.003 A 
ATOM     29  C   UNL     1     -18.275   4.579  -3.753  1.00  0.00     0.010 A 
ATOM     30  C   UNL     1     -19.023   3.870  -1.585  1.00  0.00     0.010 A 
ATOM     31  C   UNL     1     -17.000   4.071  -3.484  1.00  0.00     0.009 A 
ATOM     32  C   UNL     1     -17.752   3.356  -1.309  1.00  0.00     0.009 A 
BRANCH  28  33
ATOM     33  C   UNL     1     -20.728   5.066  -3.111  1.00  0.00     0.071 C 
ATOM     34  O   UNL     1     -21.566   4.933  -2.190  1.00  0.00    -0.545 OA
ATOM     35  O   UNL     1     -20.863   5.594  -4.238  1.00  0.00    -0.545 OA
ENDBRANCH  28  33
ENDBRANCH   9  27
BRANCH  10  36
ATOM     36  C   UNL     1     -10.378   6.321  -0.919  1.00  0.00    -0.014 A 
ATOM     37  C   UNL     1     -10.767   7.167   0.138  1.00  0.00     0.009 A 
ATOM     38  C   UNL     1      -9.476   6.840  -1.870  1.00  0.00     0.009 A 
ATOM     39  C   UNL     1     -10.272   8.471   0.240  1.00  0.00     0.010 A 
ATOM     40  C   UNL     1      -8.987   8.146  -1.762  1.00  0.00     0.010 A 
ATOM     41  C   UNL     1      -9.373   8.984  -0.706  1.00  0.00    -0.003 A 
BRANCH  41  42
ATOM     42  C   UNL     1      -8.820  10.439  -0.585  1.00  0.00     0.071 C 
ATOM     43  O   UNL     1      -8.017  10.785  -1.481  1.00  0.00    -0.545 OA
ATOM     44  O   UNL     1      -9.244  11.092   0.397  1.00  0.00    -0.545 OA
ENDBRANCH  41  42
ENDBRANCH  10  36
BRANCH  11  45
ATOM     45  C   UNL     1     -13.968  -2.981  -1.481  1.00  0.00    -0.014 A 
ATOM     46  C   UNL     1     -14.104  -3.755  -0.312  1.00  0.00     0.009 A 
ATOM     47  C   UNL     1     -14.357  -3.566  -2.702  1.00  0.00     0.009 A 
ATOM     48  C   UNL     1     -14.613  -5.057  -0.366  1.00  0.00     0.010 A 
ATOM     49  C   UNL     1     -14.861  -4.870  -2.747  1.00  0.00     0.010 A 
ATOM     50  C   UNL     1     -15.000  -5.638  -1.582  1.00  0.00    -0.003 A 
BRANCH  50  51
ATOM     51  C   UNL     1     -15.566  -7.092  -1.635  1.00  0.00     0.071 C 
ATOM     52  O   UNL     1     -15.878  -7.503  -2.776  1.00  0.00    -0.545 OA
ATOM     53  O   UNL     1     -15.644  -7.677  -0.531  1.00  0.00    -0.545 OA
ENDBRANCH  50  51
ENDBRANCH  11  45
BRANCH  12  54
ATOM     54  C   UNL     1      -7.615  -0.116  -0.254  1.00  0.00    -0.014 A 
ATOM     55  C   UNL     1      -7.059  -0.021   1.037  1.00  0.00     0.009 A 
ATOM     56  C   UNL     1      -6.848  -0.754  -1.249  1.00  0.00     0.009 A 
ATOM     57  C   UNL     1      -5.793  -0.546   1.317  1.00  0.00     0.010 A 
ATOM     58  C   UNL     1      -5.581  -1.273  -0.962  1.00  0.00     0.010 A 
ATOM     59  C   UNL     1      -5.032  -1.181   0.325  1.00  0.00    -0.003 A 
BRANCH  59  60
ATOM     60  C   UNL     1      -3.622  -1.770   0.644  1.00  0.00     0.071 C 
ATOM     61  O   UNL     1      -3.038  -2.315  -0.321  1.00  0.00    -0.545 OA
ATOM     62  O   UNL     1      -3.239  -1.631   1.828  1.00  0.00    -0.545 OA
ENDBRANCH  59  60
ENDBRANCH  12  54
TORSDOF 8
