REMARK SMILES O=C([O-])c1ccc(-c2c3nc(c(-c4ccc(C(=O)[O-])cc4)c4ccc([nH]4)c(-c4ccc(C(=O)[O-])cc4)c4nc(c(-c5ccc(C(=O)[O-])cc5)c5ccc2[nH]5)C=C4)C=C3)cc1
REMARK SMILES IDX 54 1 26 2 10 3 38 4 53 5 50 6 22 7 25 8 8 9 40 10 12 11
REMARK SMILES IDX 27 12 9 13 39 14 11 15 37 16 52 17 51 18 23 19 24 20 58 21
REMARK SMILES IDX 55 22 57 23 56 24 7 27 4 28 5 29 60 30 6 31 59 32 2 33 3 34
REMARK SMILES IDX 1 37 41 42 49 43 42 44 48 45 43 46 44 47 45 48 47 49 46 52
REMARK SMILES IDX 13 55 21 56 14 57 20 58 15 59 16 60 17 61 19 62 18 65 28 70
REMARK SMILES IDX 36 71 29 72 35 73 30 74 31 75 32 76 34 77 33 80
REMARK H PARENT 54 40 26 68
REMARK INDEX MAP 9 1 10 2 11 3 12 4 13 5 14 6 15 7 16 8 17 9 18 10 19 11 20 12
REMARK INDEX MAP 21 13 22 14 23 15 24 16 25 17 26 18 27 19 28 20 33 21 34 22
REMARK INDEX MAP 35 23 36 24 29 27 53 28 45 29 47 30 37 31 39 32 57 33 1 34
REMARK INDEX MAP 5 37 61 40 30 42 40 43 38 44 48 45 46 46 54 47 58 48 2 49
REMARK INDEX MAP 6 52 31 55 43 56 41 57 51 58 49 59 55 60 59 61 3 62 7 65
REMARK INDEX MAP 62 68 32 70 44 71 42 72 52 73 50 74 56 75 60 76 4 77 8 80
ROOT
ATOM      1  N   UNL     1     -12.991   3.606  -1.462  1.00  0.00    -0.354 N 
ATOM      2  N   UNL     1     -11.336  -0.268  -1.031  1.00  0.00    -0.354 N 
ATOM      3  N   UNL     1     -14.001   0.835  -1.616  1.00  0.00    -0.248 NA
ATOM      4  N   UNL     1     -10.326   2.503  -0.875  1.00  0.00    -0.248 NA
ATOM      5  C   UNL     1     -14.312   3.857  -1.760  1.00  0.00     0.049 A 
ATOM      6  C   UNL     1     -12.283   4.781  -1.326  1.00  0.00     0.049 A 
ATOM      7  C   UNL     1     -12.049  -1.442  -1.141  1.00  0.00     0.049 A 
ATOM      8  C   UNL     1     -10.011  -0.521  -0.754  1.00  0.00     0.049 A 
ATOM      9  C   UNL     1     -15.339   2.908  -1.955  1.00  0.00     0.031 A 
ATOM     10  C   UNL     1     -10.910   4.918  -1.028  1.00  0.00     0.031 A 
ATOM     11  C   UNL     1     -13.425  -1.579  -1.423  1.00  0.00     0.031 A 
ATOM     12  C   UNL     1      -8.985   0.428  -0.555  1.00  0.00     0.031 A 
ATOM     13  C   UNL     1     -15.164   1.502  -1.878  1.00  0.00     0.074 A 
ATOM     14  C   UNL     1     -10.018   3.832  -0.823  1.00  0.00     0.074 A 
ATOM     15  C   UNL     1     -14.312  -0.495  -1.647  1.00  0.00     0.074 A 
ATOM     16  C   UNL     1      -9.164   1.834  -0.610  1.00  0.00     0.074 A 
ATOM     17  C   UNL     1     -14.449   5.287  -1.815  1.00  0.00     0.029 A 
ATOM     18  C   UNL     1     -13.219   5.845  -1.563  1.00  0.00     0.029 A 
ATOM     19  C   UNL     1     -11.109  -2.508  -0.925  1.00  0.00     0.029 A 
ATOM     20  C   UNL     1      -9.877  -1.950  -0.682  1.00  0.00     0.029 A 
ATOM     21  C   UNL     1     -16.261   0.558  -2.094  1.00  0.00     0.031 C 
ATOM     22  C   UNL     1      -8.603   4.021  -0.503  1.00  0.00     0.031 C 
ATOM     23  C   UNL     1     -15.733  -0.684  -1.937  1.00  0.00     0.031 C 
ATOM     24  C   UNL     1      -8.068   2.777  -0.385  1.00  0.00     0.031 C 
ATOM     25 WAT  UNL     1     -11.309   2.046  -1.081  1.00  0.00     0.000 W 
ATOM     26 WAT  UNL     1     -13.011   1.297  -1.454  1.00  0.00     0.000 W 
ENDROOT
BRANCH   9  27
ATOM     27  C   UNL     1     -16.711   3.448  -2.254  1.00  0.00    -0.014 A 
ATOM     28  C   UNL     1     -19.308   4.490  -2.810  1.00  0.00    -0.003 A 
ATOM     29  C   UNL     1     -18.275   4.579  -3.753  1.00  0.00     0.010 A 
ATOM     30  C   UNL     1     -19.023   3.870  -1.585  1.00  0.00     0.010 A 
ATOM     31  C   UNL     1     -17.000   4.071  -3.484  1.00  0.00     0.009 A 
ATOM     32  C   UNL     1     -17.752   3.356  -1.309  1.00  0.00     0.009 A 
BRANCH  28  33
ATOM     33  C   UNL     1     -20.728   5.066  -3.111  1.00  0.00     0.071 C 
BRANCH  33  34
ATOM     34  O   UNL     1     -21.566   4.933  -2.190  1.00  0.00    -0.545 OA
ATOM     35 WAT  UNL     1     -20.779   3.582   0.371  1.00  0.00     0.000 W 
ATOM     36 WAT  UNL     1     -24.361   5.965  -2.544  1.00  0.00     0.000 W 
ENDBRANCH  33  34
BRANCH  33  37
ATOM     37  O   UNL     1     -20.863   5.594  -4.238  1.00  0.00    -0.545 OA
ATOM     38 WAT  UNL     1     -18.545   5.684  -6.140  1.00  0.00     0.000 W 
ATOM     39 WAT  UNL     1     -23.505   6.770  -5.037  1.00  0.00     0.000 W 
ENDBRANCH  33  37
ENDBRANCH  28  33
ENDBRANCH   9  27
BRANCH   1  40
ATOM     40  H   UNL     1     -12.588   2.677  -1.352  1.00  0.00     0.167 HD
ATOM     41 WAT  UNL     1     -11.797   0.853  -1.136  1.00  0.00     0.000 W 
ENDBRANCH   1  40
BRANCH  10  42
ATOM     42  C   UNL     1     -10.378   6.321  -0.919  1.00  0.00    -0.014 A 
ATOM     43  C   UNL     1     -10.767   7.167   0.138  1.00  0.00     0.009 A 
ATOM     44  C   UNL     1      -9.476   6.840  -1.870  1.00  0.00     0.009 A 
ATOM     45  C   UNL     1     -10.272   8.471   0.240  1.00  0.00     0.010 A 
ATOM     46  C   UNL     1      -8.987   8.146  -1.762  1.00  0.00     0.010 A 
ATOM     47  C   UNL     1      -9.373   8.984  -0.706  1.00  0.00    -0.003 A 
BRANCH  47  48
ATOM     48  C   UNL     1      -8.820  10.439  -0.585  1.00  0.00     0.071 C 
BRANCH  48  49
ATOM     49  O   UNL     1      -8.017  10.785  -1.481  1.00  0.00    -0.545 OA
ATOM     50 WAT  UNL     1      -6.828  13.539  -1.448  1.00  0.00     0.000 W 
ATOM     51 WAT  UNL     1      -7.282   8.860  -3.661  1.00  0.00     0.000 W 
ENDBRANCH  48  49
BRANCH  48  52
ATOM     52  O   UNL     1      -9.244  11.092   0.397  1.00  0.00    -0.545 OA
ATOM     53 WAT  UNL     1     -11.186   9.836   2.308  1.00  0.00     0.000 W 
ATOM     54 WAT  UNL     1      -8.317  13.911   0.837  1.00  0.00     0.000 W 
ENDBRANCH  48  52
ENDBRANCH  47  48
ENDBRANCH  10  42
BRANCH  11  55
ATOM     55  C   UNL     1     -13.968  -2.981  -1.481  1.00  0.00    -0.014 A 
ATOM     56  C   UNL     1     -14.104  -3.755  -0.312  1.00  0.00     0.009 A 
ATOM     57  C   UNL     1     -14.357  -3.566  -2.702  1.00  0.00     0.009 A 
ATOM     58  C   UNL     1     -14.613  -5.057  -0.366  1.00  0.00     0.010 A 
ATOM     59  C   UNL     1     -14.861  -4.870  -2.747  1.00  0.00     0.010 A 
ATOM     60  C   UNL     1     -15.000  -5.638  -1.582  1.00  0.00    -0.003 A 
BRANCH  60  61
ATOM     61  C   UNL     1     -15.566  -7.092  -1.635  1.00  0.00     0.071 C 
BRANCH  61  62
ATOM     62  O   UNL     1     -15.878  -7.503  -2.776  1.00  0.00    -0.545 OA
ATOM     63 WAT  UNL     1     -15.511  -5.724  -5.164  1.00  0.00     0.000 W 
ATOM     64 WAT  UNL     1     -16.993 -10.267  -3.122  1.00  0.00     0.000 W 
ENDBRANCH  61  62
BRANCH  61  65
ATOM     65  O   UNL     1     -15.644  -7.677  -0.531  1.00  0.00    -0.545 OA
ATOM     66 WAT  UNL     1     -14.767  -6.278   1.973  1.00  0.00     0.000 W 
ATOM     67 WAT  UNL     1     -16.708 -10.478  -0.390  1.00  0.00     0.000 W 
ENDBRANCH  61  65
ENDBRANCH  60  61
ENDBRANCH  11  55
BRANCH   2  68
ATOM     68  H   UNL     1     -11.738   0.661  -1.138  1.00  0.00     0.167 HD
ATOM     69 WAT  UNL     1     -12.528   2.486  -1.348  1.00  0.00     0.000 W 
ENDBRANCH   2  68
BRANCH  12  70
ATOM     70  C   UNL     1      -7.615  -0.116  -0.254  1.00  0.00    -0.014 A 
ATOM     71  C   UNL     1      -7.059  -0.021   1.037  1.00  0.00     0.009 A 
ATOM     72  C   UNL     1      -6.848  -0.754  -1.249  1.00  0.00     0.009 A 
ATOM     73  C   UNL     1      -5.793  -0.546   1.317  1.00  0.00     0.010 A 
ATOM     74  C   UNL     1      -5.581  -1.273  -0.962  1.00  0.00     0.010 A 
ATOM     75  C   UNL     1      -5.032  -1.181   0.325  1.00  0.00    -0.003 A 
BRANCH  75  76
ATOM     76  C   UNL     1      -3.622  -1.770   0.644  1.00  0.00     0.071 C 
BRANCH  76  77
ATOM     77  O   UNL     1      -3.038  -2.315  -0.321  1.00  0.00    -0.545 OA
ATOM     78 WAT  UNL     1      -0.316  -3.517   0.058  1.00  0.00     0.000 W 
ATOM     79 WAT  UNL     1      -4.362  -2.418  -3.011  1.00  0.00     0.000 W 
ENDBRANCH  76  77
BRANCH  76  80
ATOM     80  O   UNL     1      -3.239  -1.631   1.828  1.00  0.00    -0.545 OA
ATOM     81 WAT  UNL     1      -4.998  -0.239   3.820  1.00  0.00     0.000 W 
ATOM     82 WAT  UNL     1      -0.562  -2.690   2.673  1.00  0.00     0.000 W 
ENDBRANCH  76  80
ENDBRANCH  75  76
ENDBRANCH  12  70
TORSDOF 18
