REMARK  8 active torsions:
REMARK  status: ('A' for Active; 'I' for Inactive)
REMARK    1  A    between atoms: C08_17  and  C20_29 
REMARK    2  A    between atoms: C09_18  and  C21_30 
REMARK    3  A    between atoms: C10_19  and  C22_31 
REMARK    4  A    between atoms: C11_20  and  C23_32 
REMARK    5  A    between atoms: C44_53  and  C48_57 
REMARK    6  A    between atoms: C45_54  and  C49_58 
REMARK    7  A    between atoms: C46_55  and  C50_59 
REMARK    8  A    between atoms: C47_56  and  C_60 
ROOT
ATOM      1  N01 UNL d   1     -12.991   3.606  -1.462  0.00  0.00    -0.065 N 
ATOM      2  N02 UNL d   1     -11.336  -0.268  -1.031  0.00  0.00    -0.050 N 
ATOM      3  N03 UNL d   1     -14.001   0.835  -1.616  0.00  0.00    -0.197 NA
ATOM      4  N   UNL d   1     -10.326   2.503  -0.875  0.00  0.00    -0.176 NA
ATOM      5  C04 UNL d   1     -14.312   3.857  -1.760  0.00  0.00     0.062 A 
ATOM      6  C05 UNL d   1     -12.283   4.781  -1.326  0.00  0.00     0.077 A 
ATOM      7  C06 UNL d   1     -12.049  -1.442  -1.141  0.00  0.00     0.063 A 
ATOM      8  C07 UNL d   1     -10.011  -0.521  -0.754  0.00  0.00     0.053 A 
ATOM      9  C08 UNL d   1     -15.339   2.908  -1.955  0.00  0.00     0.063 A 
ATOM     10  C09 UNL d   1     -10.910   4.918  -1.028  0.00  0.00    -0.002 A 
ATOM     11  C10 UNL d   1     -13.425  -1.579  -1.423  0.00  0.00     0.037 A 
ATOM     12  C11 UNL d   1      -8.985   0.428  -0.555  0.00  0.00     0.087 A 
ATOM     13  C12 UNL d   1     -15.164   1.502  -1.878  0.00  0.00    -0.012 A 
ATOM     14  C13 UNL d   1     -10.018   3.832  -0.823  0.00  0.00    -0.000 A 
ATOM     15  C14 UNL d   1     -14.312  -0.495  -1.647  0.00  0.00     0.035 A 
ATOM     16  C15 UNL d   1      -9.164   1.834  -0.610  0.00  0.00     0.026 A 
ATOM     17  C16 UNL d   1     -14.449   5.287  -1.815  0.00  0.00    -0.031 A 
ATOM     18  C17 UNL d   1     -13.219   5.845  -1.563  0.00  0.00    -0.042 A 
ATOM     19  C18 UNL d   1     -11.109  -2.508  -0.925  0.00  0.00    -0.079 A 
ATOM     20  C19 UNL d   1      -9.877  -1.950  -0.682  0.00  0.00    -0.062 A 
ATOM     21  C24 UNL d   1     -16.261   0.558  -2.094  0.00  0.00    -0.052 A 
ATOM     22  C25 UNL d   1      -8.603   4.021  -0.503  0.00  0.00    -0.058 A 
ATOM     23  C26 UNL d   1     -15.733  -0.684  -1.937  0.00  0.00    -0.018 A 
ATOM     24  C27 UNL d   1      -8.068   2.777  -0.385  0.00  0.00    -0.043 A 
ATOM     25  H58 UNL d   1     -12.588   2.677  -1.352  0.00  0.00     0.136 HD
ATOM     26  H59 UNL d   1     -11.738   0.661  -1.138  0.00  0.00     0.135 HD
ENDROOT
BRANCH   9  27
ATOM     27  C20 UNL d   1     -16.711   3.448  -2.254  0.00  0.00     0.126 A 
ATOM     28  C30 UNL d   1     -17.752   3.356  -1.309  0.00  0.00    -0.096 A 
ATOM     29  C38 UNL d   1     -19.023   3.870  -1.585  0.00  0.00    -0.088 A 
ATOM     30  C44 UNL d   1     -19.308   4.490  -2.810  0.00  0.00     0.023 A 
ATOM     31  C36 UNL d   1     -18.275   4.579  -3.753  0.00  0.00    -0.088 A 
ATOM     32  C28 UNL d   1     -17.000   4.071  -3.484  0.00  0.00    -0.099 A 
BRANCH  30  33
ATOM     33  C48 UNL d   1     -20.728   5.066  -3.111  0.00  0.00     0.084 C 
ATOM     34  O55 UNL d   1     -20.863   5.594  -4.238  0.00  0.00    -0.419 OA
ATOM     35  O51 UNL d   1     -21.566   4.933  -2.190  0.00  0.00    -0.413 OA
ENDBRANCH  30  33
ENDBRANCH   9  27
BRANCH  10  36
ATOM     36  C21 UNL d   1     -10.378   6.321  -0.919  0.00  0.00    -0.025 A 
ATOM     37  C31 UNL d   1     -10.767   7.167   0.138  0.00  0.00    -0.039 A 
ATOM     38  C39 UNL d   1     -10.272   8.471   0.240  0.00  0.00    -0.075 A 
ATOM     39  C45 UNL d   1      -9.373   8.984  -0.706  0.00  0.00     0.013 A 
ATOM     40  C37 UNL d   1      -8.987   8.146  -1.762  0.00  0.00    -0.073 A 
ATOM     41  C29 UNL d   1      -9.476   6.840  -1.870  0.00  0.00    -0.036 A 
BRANCH  39  42
ATOM     42  C49 UNL d   1      -8.820  10.439  -0.585  0.00  0.00     0.087 C 
ATOM     43  O52 UNL d   1      -8.017  10.785  -1.481  0.00  0.00    -0.415 OA
ATOM     44  O56 UNL d   1      -9.244  11.092   0.397  0.00  0.00    -0.421 OA
ENDBRANCH  39  42
ENDBRANCH  10  36
BRANCH  11  45
ATOM     45  C22 UNL d   1     -13.968  -2.981  -1.481  0.00  0.00    -0.042 A 
ATOM     46  C34 UNL d   1     -14.104  -3.755  -0.312  0.00  0.00    -0.029 A 
ATOM     47  C42 UNL d   1     -14.613  -5.057  -0.366  0.00  0.00    -0.074 A 
ATOM     48  C46 UNL d   1     -15.000  -5.638  -1.582  0.00  0.00     0.016 A 
ATOM     49  C40 UNL d   1     -14.861  -4.870  -2.747  0.00  0.00    -0.071 A 
ATOM     50  C32 UNL d   1     -14.357  -3.566  -2.702  0.00  0.00    -0.028 A 
BRANCH  48  51
ATOM     51  C50 UNL d   1     -15.566  -7.092  -1.635  0.00  0.00     0.087 C 
ATOM     52  O53 UNL d   1     -15.878  -7.503  -2.776  0.00  0.00    -0.417 OA
ATOM     53  O57 UNL d   1     -15.644  -7.677  -0.531  0.00  0.00    -0.417 OA
ENDBRANCH  48  51
ENDBRANCH  11  45
BRANCH  12  54
ATOM     54  C23 UNL d   1      -7.615  -0.116  -0.254  0.00  0.00     0.037 A 
ATOM     55  C35 UNL d   1      -7.059  -0.021   1.037  0.00  0.00    -0.053 A 
ATOM     56  C43 UNL d   1      -5.793  -0.546   1.317  0.00  0.00    -0.076 A 
ATOM     57  C47 UNL d   1      -5.032  -1.181   0.325  0.00  0.00     0.029 A 
ATOM     58  C41 UNL d   1      -5.581  -1.273  -0.962  0.00  0.00    -0.076 A 
ATOM     59  C33 UNL d   1      -6.848  -0.754  -1.249  0.00  0.00    -0.068 A 
BRANCH  57  60
ATOM     60  C   UNL d   1      -3.622  -1.770   0.644  0.00  0.00     0.087 C 
ATOM     61  O54 UNL d   1      -3.038  -2.315  -0.321  0.00  0.00    -0.417 OA
ATOM     62  O   UNL d   1      -3.239  -1.631   1.828  0.00  0.00    -0.419 OA
ENDBRANCH  57  60
ENDBRANCH  12  54
TORSDOF 8
