@<TRIPOS>MOLECULE
Coordinates from ORCA-job 4COOH
86 94 1                 
SMALL
USER_CHARGES
@<TRIPOS>ATOM
1	 O51	-21.566	4.933	-2.190	O.co2	1	UNL1	-0.413	
2	 O52	-8.017	10.785	-1.481	O.co2	1	UNL1	-0.415	
3	 O53	-15.878	-7.503	-2.776	O.co2	1	UNL1	-0.417	
4	 O54	-3.038	-2.315	-0.321	O.co2	1	UNL1	-0.417	
5	 O55	-20.863	5.594	-4.238	O.co2	1	UNL1	-0.419	
6	 O56	-9.244	11.092	0.397	O.co2	1	UNL1	-0.421	
7	 O57	-15.644	-7.677	-0.531	O.co2	1	UNL1	-0.417	
8	   O	-3.239	-1.631	1.828	O.co2	1	UNL1	-0.419	
9	 N01	-12.991	3.606	-1.462	N.pl3	1	UNL1	-0.065	
10	 N02	-11.336	-0.268	-1.031	N.pl3	1	UNL1	-0.050	
11	 N03	-14.001	0.835	-1.616	N.2	1	UNL1	-0.197	
12	   N	-10.326	2.503	-0.875	N.2	1	UNL1	-0.176	
13	 C04	-14.312	3.857	-1.760	C.2	1	UNL1	0.062	
14	 C05	-12.283	4.781	-1.326	C.2	1	UNL1	0.077	
15	 C06	-12.049	-1.442	-1.141	C.2	1	UNL1	0.063	
16	 C07	-10.011	-0.521	-0.754	C.2	1	UNL1	0.053	
17	 C08	-15.339	2.908	-1.955	C.2	1	UNL1	0.063	
18	 C09	-10.910	4.918	-1.028	C.2	1	UNL1	-0.002	
19	 C10	-13.425	-1.579	-1.423	C.2	1	UNL1	0.037	
20	 C11	-8.985	0.428	-0.555	C.2	1	UNL1	0.087	
21	 C12	-15.164	1.502	-1.878	C.2	1	UNL1	-0.012	
22	 C13	-10.018	3.832	-0.823	C.2	1	UNL1	-0.000	
23	 C14	-14.312	-0.495	-1.647	C.2	1	UNL1	0.035	
24	 C15	-9.164	1.834	-0.610	C.2	1	UNL1	0.026	
25	 C16	-14.449	5.287	-1.815	C.2	1	UNL1	-0.009	
26	 C17	-13.219	5.845	-1.563	C.2	1	UNL1	-0.024	
27	 C18	-11.109	-2.508	-0.925	C.2	1	UNL1	-0.054	
28	 C19	-9.877	-1.950	-0.682	C.2	1	UNL1	-0.040	
29	 C20	-16.711	3.448	-2.254	C.2	1	UNL1	0.126	
30	 C21	-10.378	6.321	-0.919	C.2	1	UNL1	-0.025	
31	 C22	-13.968	-2.981	-1.481	C.2	1	UNL1	-0.042	
32	 C23	-7.615	-0.116	-0.254	C.2	1	UNL1	0.037	
33	 C24	-16.261	0.558	-2.094	C.2	1	UNL1	-0.024	
34	 C25	-8.603	4.021	-0.503	C.2	1	UNL1	-0.039	
35	 C26	-15.733	-0.684	-1.937	C.2	1	UNL1	0.005	
36	 C27	-8.068	2.777	-0.385	C.2	1	UNL1	0.005	
37	 C28	-17.000	4.071	-3.484	C.2	1	UNL1	-0.059	
38	 C29	-9.476	6.840	-1.870	C.2	1	UNL1	0.024	
39	 C30	-17.752	3.356	-1.309	C.2	1	UNL1	-0.042	
40	 C31	-10.767	7.167	0.138	C.2	1	UNL1	0.022	
41	 C32	-14.357	-3.566	-2.702	C.2	1	UNL1	0.034	
42	 C33	-6.848	-0.754	-1.249	C.2	1	UNL1	-0.025	
43	 C34	-14.104	-3.755	-0.312	C.2	1	UNL1	0.025	
44	 C35	-7.059	-0.021	1.037	C.2	1	UNL1	-0.009	
45	 C36	-18.275	4.579	-3.753	C.2	1	UNL1	-0.036	
46	 C37	-8.987	8.146	-1.762	C.2	1	UNL1	-0.017	
47	 C38	-19.023	3.870	-1.585	C.2	1	UNL1	-0.035	
48	 C39	-10.272	8.471	0.240	C.2	1	UNL1	-0.019	
49	 C40	-14.861	-4.870	-2.747	C.2	1	UNL1	-0.017	
50	 C41	-5.581	-1.273	-0.962	C.2	1	UNL1	-0.024	
51	 C42	-14.613	-5.057	-0.366	C.2	1	UNL1	-0.020	
52	 C43	-5.793	-0.546	1.317	C.2	1	UNL1	-0.024	
53	 C44	-19.308	4.490	-2.810	C.2	1	UNL1	0.023	
54	 C45	-9.373	8.984	-0.706	C.2	1	UNL1	0.013	
55	 C46	-15.000	-5.638	-1.582	C.2	1	UNL1	0.016	
56	 C47	-5.032	-1.181	0.325	C.2	1	UNL1	0.029	
57	 C48	-20.728	5.066	-3.111	C.2	1	UNL1	0.084	
58	 C49	-8.820	10.439	-0.585	C.2	1	UNL1	0.087	
59	 C50	-15.566	-7.092	-1.635	C.2	1	UNL1	0.087	
60	   C	-3.622	-1.770	0.644	C.2	1	UNL1	0.087	
61	 H58	-12.588	2.677	-1.352	 H	1	UNL1	0.136	
62	 H59	-11.738	0.661	-1.138	 H	1	UNL1	0.135	
63	 H60	-15.381	5.803	-2.027	 H	1	UNL1	-0.022	
64	 H61	-12.963	6.901	-1.537	 H	1	UNL1	-0.018	
65	 H62	-11.368	-3.563	-0.952	 H	1	UNL1	-0.025	
66	 H63	-8.944	-2.466	-0.472	 H	1	UNL1	-0.022	
67	 H64	-17.288	0.827	-2.328	 H	1	UNL1	-0.028	
68	 H65	-8.103	4.980	-0.391	 H	1	UNL1	-0.019	
69	 H66	-16.240	-1.643	-2.011	 H	1	UNL1	-0.023	
70	 H67	-7.039	2.506	-0.162	 H	1	UNL1	-0.048	
71	 H68	-16.208	4.147	-4.237	 H	1	UNL1	-0.040	
72	 H69	-9.164	6.203	-2.704	 H	1	UNL1	-0.060	
73	 H70	-17.548	2.878	-0.345	 H	1	UNL1	-0.054	
74	 H71	-11.461	6.783	0.894	 H	1	UNL1	-0.061	
75	 H72	-14.254	-2.983	-3.624	 H	1	UNL1	-0.062	
76	 H73	-7.259	-0.835	-2.261	 H	1	UNL1	-0.043	
77	 H74	-13.813	-3.318	0.648	 H	1	UNL1	-0.054	
78	 H75	-7.640	0.467	1.827	 H	1	UNL1	-0.044	
79	 H76	-18.517	5.061	-4.705	 H	1	UNL1	-0.052	
80	 H77	-8.288	8.563	-2.492	 H	1	UNL1	-0.056	
81	 H78	-19.840	3.812	-0.861	 H	1	UNL1	-0.053	
82	 H79	-10.559	9.137	1.058	 H	1	UNL1	-0.056	
83	 H80	-15.165	-5.341	-3.686	 H	1	UNL1	-0.054	
84	 H81	-4.972	-1.767	-1.723	 H	1	UNL1	-0.052	
85	 H82	-14.731	-5.670	0.532	 H	1	UNL1	-0.054	
86	   H	-5.350	-0.488	2.315	 H	1	UNL1	-0.052	
@<TRIPOS>BOND
1 2 58 ar
2 3 59 ar
3 4 60 ar
4 5 57 ar
5 9 14 1
6 9 61 1
7 10 16 1
8 11 21 1
9 11 23 2
10 9 13 1
11 13 25 2
12 14 18 1
13 14 26 2
14 10 15 1
15 16 20 2
16 13 17 1
17 18 30 1
18 15 19 2
19 20 24 1
20 20 32 1
21 17 21 2
22 12 22 1
23 18 22 2
24 19 23 1
25 12 24 2
26 24 36 1
27 25 26 1
28 26 64 1
29 15 27 1
30 27 28 2
31 16 28 1
32 28 66 1
33 17 29 1
34 29 39 ar
35 30 40 ar
36 19 31 1
37 31 43 ar
38 32 44 ar
39 21 33 1
40 33 35 2
41 22 34 1
42 34 36 2
43 34 68 1
44 23 35 1
45 36 70 1
46 29 37 ar
47 30 38 ar
48 38 46 ar
49 39 73 1
50 40 48 ar
51 40 74 1
52 31 41 ar
53 32 42 ar
54 42 50 ar
55 43 77 1
56 44 52 ar
57 44 78 1
58 37 45 ar
59 45 53 ar
60 46 54 ar
61 39 47 ar
62 47 81 1
63 48 82 1
64 41 49 ar
65 49 55 ar
66 50 56 ar
67 43 51 ar
68 51 85 1
69 52 86 1
70 47 53 ar
71 48 54 ar
72 54 58 1
73 51 55 ar
74 52 56 ar
75 56 60 1
76 1 57 ar
77 53 57 1
78 6 58 ar
79 7 59 ar
80 55 59 1
81 8 60 ar
82 10 62 1
83 25 63 1
84 27 65 1
85 33 67 1
86 35 69 1
87 37 71 1
88 38 72 1
89 41 75 1
90 42 76 1
91 45 79 1
92 46 80 1
93 49 83 1
94 50 84 1
